GPSTTopic82024/data/LV30_315bus/lv30_315bus_EXP_VOLTAGES.csv
Bus, BasekV, Node1, Magnitude1, Angle1, pu1, Node2, Magnitude2, Angle2, pu2, Node3, Magnitude3, Angle3, pu3, Node4, Magnitude4, Angle4, pu4
"SOURCEBUS", 0, 1,     230.94,    0.0,         0, 2,     230.94, -120.0,         0, 3,     230.94,  120.0,         0, 4,    1.69412,   -2.3,         0
"B291", 0, 1,    212.874,   -3.7,         0, 2,    226.281, -120.8,         0, 3,    217.933,  118.6,         0, 4,    5.07854,   -6.9,         0
"B2515", 0, 1,    212.874,   -3.7,         0, 2,    226.281, -120.8,         0, 3,    217.933,  118.6,         0, 4,    5.07854,   -6.9,         0
"B1328", 0, 1,    229.908,   -0.2,         0, 2,     230.01, -120.2,         0, 3,    230.036,  119.8,         0, 4,    1.72059,   -2.9,         0
"B1705", 0, 1,    229.905,   -0.2,         0, 2,    230.006, -120.2,         0, 3,     230.03,  119.8,         0, 4,     1.7172,   -3.0,         0
"B3296", 0, 1,    227.246,   -0.6,         0, 2,     226.76, -120.8,         0, 3,    227.866,  119.4,         0, 4,    2.07689,  -60.9,         0
"B1132", 0, 1,    227.247,   -0.6,         0, 2,    226.996, -120.8,         0, 3,    227.866,  119.4,         0, 4,    1.95404,  -55.2,         0
"B1194", 0, 1,    214.619,   -3.2,         0, 2,    227.022, -120.7,         0, 3,    220.375,  118.9,         0, 4,    5.84068,   -6.4,         0
"B680", 0, 1,    213.937,   -3.3,         0, 2,    227.042, -120.7,         0, 3,    220.374,  118.9,         0, 4,    6.49367,   -5.7,         0
"B3391", 0, 1,    228.616,   -0.4,         0, 2,    228.518, -120.5,         0, 3,    228.212,  119.5,         0, 4,   0.949801,  -17.4,         0
"B2142", 0, 1,    228.616,   -0.4,         0, 2,    228.518, -120.5,         0, 3,    228.212,  119.5,         0, 4,   0.949798,  -17.4,         0
"B177", 0, 1,    214.853,   -3.2,         0, 2,    226.067, -120.8,         0, 3,     220.44,  118.9,         0, 4,    5.48912,  -17.0,         0
"B1512", 0, 1,    214.855,   -3.2,         0, 2,    226.329, -120.8,         0, 3,    220.442,  118.9,         0, 4,    5.55025,  -14.2,         0
"B2038", 0, 1,    225.535,   -0.9,         0, 2,    225.498, -121.1,         0, 3,    227.095,  119.4,         0, 4,    2.63552,  -61.2,         0
"B2820", 0, 1,    225.177,   -0.9,         0, 2,     225.14, -121.1,         0, 3,    226.764,  119.4,         0, 4,    2.65671,  -65.2,         0
"B3284", 0, 1,    228.616,   -0.4,         0, 2,    228.518, -120.5,         0, 3,    228.212,  119.5,         0, 4,     0.9499,  -17.5,         0
"B3019", 0, 1,    228.616,   -0.4,         0, 2,    228.518, -120.5,         0, 3,    228.212,  119.5,         0, 4,   0.949862,  -17.5,         0
"B3375", 0, 1,    211.299,   -4.0,         0, 2,    226.924, -120.7,         0, 3,    216.599,  118.5,         0, 4,    5.72371,    8.6,         0
"B170", 0, 1,    211.303,   -4.0,         0, 2,    226.924, -120.7,         0, 3,    217.002,  118.5,         0, 4,    5.91928,    5.2,         0
"B2457", 0, 1,    212.874,   -3.7,         0, 2,    225.929, -120.8,         0, 3,    217.929,  118.6,         0, 4,    4.95807,  -10.9,         0
"B2679", 0, 1,    224.191,   -1.0,         0, 2,    224.656, -121.2,         0, 3,    226.217,  119.3,         0, 4,    2.67603,  -62.9,         0
"B1408", 0, 1,    224.464,   -1.0,         0, 2,    224.651, -121.2,         0, 3,    226.213,  119.3,         0, 4,    2.58464,  -68.4,         0
"B3136", 0, 1,     224.16,   -1.0,         0, 2,    223.776, -121.4,         0, 3,    225.901,  119.3,         0, 4,    3.15783,  -79.6,         0
"B1762", 0, 1,    224.094,   -1.0,         0, 2,     223.78, -121.4,         0, 3,    225.858,  119.3,         0, 4,    3.09847,  -79.5,         0
"B1121", 0, 1,    213.011,   -3.4,         0, 2,    226.098, -120.8,         0, 3,    220.325,  118.9,         0, 4,    7.15211,  -14.2,         0
"B2683", 0, 1,    213.262,   -3.4,         0, 2,    226.091, -120.8,         0, 3,    220.324,  118.9,         0, 4,    6.92054,  -14.7,         0
"B2571", 0, 1,    229.441,   -0.3,         0, 2,    229.254, -120.4,         0, 3,    228.275,  119.5,         0, 4,    0.56842,   29.9,         0
"B3036", 0, 1,    229.441,   -0.3,         0, 2,    229.254, -120.4,         0, 3,    228.275,  119.5,         0, 4,    0.56842,   29.9,         0
"B819", 0, 1,    212.255,   -3.7,         0, 2,    226.129, -120.8,         0, 3,    218.634,  118.7,         0, 4,    6.32313,  -12.0,         0
"B2153", 0, 1,    212.501,   -3.7,         0, 2,    226.122, -120.8,         0, 3,    218.634,  118.7,         0, 4,    6.09224,  -12.4,         0
"B2849", 0, 1,    229.448,   -0.3,         0, 2,    229.263, -120.4,         0, 3,     228.92,  119.5,         0, 4,   0.888521,  -16.3,         0
"B3114", 0, 1,    216.837,   -2.7,         0, 2,     227.08, -120.7,         0, 3,    221.685,  119.0,         0, 4,    5.35912,   -8.1,         0
"B2117", 0, 1,     214.97,   -3.0,         0, 2,    226.802, -120.7,         0, 3,    220.225,  118.9,         0, 4,     5.6434,   -6.4,         0
"B2861", 0, 1,    229.309,   -0.4,         0, 2,    229.019, -120.4,         0, 3,    228.634,  119.5,         0, 4,   0.746478,  -30.2,         0
"B3287", 0, 1,    229.302,   -0.4,         0, 2,    229.011, -120.4,         0, 3,    228.013,  119.4,         0, 4,   0.329576,   25.2,         0
"B3169", 0, 1,    216.497,   -2.7,         0, 2,    226.782, -120.7,         0, 3,    221.682,  119.0,         0, 4,    5.57632,  -10.6,         0
"B825", 0, 1,    212.501,   -3.7,         0, 2,    226.122, -120.8,         0, 3,    218.634,  118.7,         0, 4,    6.09224,  -12.4,         0
"B602", 0, 1,    228.616,   -0.4,         0, 2,    228.518, -120.5,         0, 3,    228.212,  119.5,         0, 4,   0.949832,  -17.5,         0
"B339", 0, 1,    228.616,   -0.4,         0, 2,    228.518, -120.5,         0, 3,    228.212,  119.5,         0, 4,   0.949824,  -17.5,         0
"B186", 0, 1,    214.857,   -3.2,         0, 2,    226.939, -120.7,         0, 3,    220.449,  118.9,         0, 4,     5.7404,   -8.0,         0
"B1496", 0, 1,    224.699,   -1.0,         0, 2,    224.404, -121.3,         0, 3,    226.195,  119.3,         0, 4,    2.81112,  -76.8,         0
"B1528", 0, 1,    224.437,   -1.0,         0, 2,    224.138, -121.3,         0, 3,    226.048,  119.3,         0, 4,    2.92883,  -78.0,         0
"B568", 0, 1,    224.886,   -1.1,         0, 2,    225.118, -121.3,         0, 3,    227.763,  119.5,         0, 4,    4.02525,  -53.7,         0
"B3354", 0, 1,    224.888,   -1.1,         0, 2,    225.343, -121.3,         0, 3,    227.763,  119.5,         0, 4,     3.9339,  -50.6,         0
"B2323", 0, 1,    214.247,   -3.4,         0, 2,    226.933, -120.8,         0, 3,    220.096,  118.9,         0, 4,    6.10695,   -7.3,         0
"B1939", 0, 1,    214.251,   -3.4,         0, 2,    226.932, -120.8,         0, 3,    220.335,  118.9,         0, 4,    6.27628,   -8.9,         0
"B1922", 0, 1,    229.012,   -0.4,         0, 2,    228.872, -120.4,         0, 3,    227.887,  119.5,         0, 4,   0.630265,   32.7,         0
"B1895", 0, 1,     229.02,   -0.4,         0, 2,     228.88, -120.4,         0, 3,    228.565,  119.5,         0, 4,   0.937179,  -13.5,         0
"B29", 0, 1,    228.725,   -0.4,         0, 2,    228.613, -120.5,         0, 3,     228.33,  119.5,         0, 4,   0.932248,  -19.9,         0
"B2358", 0, 1,    225.938,   -0.8,         0, 2,    226.442, -120.9,         0, 3,    227.831,  119.5,         0, 4,    2.82891,  -42.8,         0
"B2890", 0, 1,    226.415,   -0.8,         0, 2,    226.432, -120.9,         0, 3,    227.826,  119.5,         0, 4,    2.53425,  -50.6,         0
"B835", 0, 1,     228.84,   -0.4,         0, 2,    228.598, -120.4,         0, 3,     228.09,  119.5,         0, 4,    0.69363,  -12.5,         0
"B2099", 0, 1,    228.842,   -0.4,         0, 2,      228.6, -120.4,         0, 3,    228.297,  119.5,         0, 4,   0.857049,  -22.1,         0
"B1516", 0, 1,    214.854,   -3.2,         0, 2,    226.939, -120.7,         0, 3,    220.191,  118.9,         0, 4,    5.56265,   -6.1,         0
"B3159", 0, 1,    227.841,   -0.6,         0, 2,    227.991, -120.6,         0, 3,    227.812,  119.3,         0, 4,    1.17022,  -29.4,         0
"B2880", 0, 1,    228.091,   -0.6,         0, 2,    227.987, -120.6,         0, 3,    227.809,  119.3,         0, 4,   0.972082,  -37.4,         0
"B3233", 0, 1,    214.839,   -3.1,         0, 2,    226.976, -120.7,         0, 3,     220.69,  118.9,         0, 4,    6.03292,   -7.2,         0
"B1829", 0, 1,    215.128,   -3.1,         0, 2,    226.968, -120.7,         0, 3,    220.689,  118.9,         0, 4,    5.75645,   -7.6,         0
"B2990", 0, 1,    213.668,   -3.3,         0, 2,     227.05, -120.7,         0, 3,    220.374,  118.9,         0, 4,    6.75154,   -5.5,         0
"B2552", 0, 1,    225.206,   -1.0,         0, 2,    225.756, -121.2,         0, 3,    227.723,  119.5,         0, 4,    3.56878,  -48.6,         0
"B1510", 0, 1,    225.206,   -1.0,         0, 2,    225.756, -121.2,         0, 3,    227.723,  119.5,         0, 4,    3.56878,  -48.6,         0
"B161", 0, 1,    224.877,   -0.9,         0, 2,     224.94, -121.2,         0, 3,    226.222,  119.3,         0, 4,    2.30546,  -68.6,         0
"B1182", 0, 1,    224.882,   -0.9,         0, 2,    224.942, -121.2,         0, 3,    226.483,  119.3,         0, 4,    2.56615,  -67.3,         0
"B1850", 0, 1,    228.043,   -0.6,         0, 2,    227.683, -120.7,         0, 3,    227.483,  119.3,         0, 4,   0.992484,  -51.4,         0
"B749", 0, 1,    228.046,   -0.6,         0, 2,    227.686, -120.7,         0, 3,    227.725,  119.3,         0, 4,    1.23588,  -52.3,         0
"B806", 0, 1,      214.3,   -3.3,         0, 2,    226.969, -120.8,         0, 3,    220.382,  118.9,         0, 4,    6.25584,   -8.2,         0
"B2087", 0, 1,      214.3,   -3.3,         0, 2,    226.969, -120.8,         0, 3,    220.382,  118.9,         0, 4,    6.25584,   -8.2,         0
"B3123", 0, 1,    225.619,   -0.9,         0, 2,    225.893, -121.1,         0, 3,     227.45,  119.5,         0, 4,    3.02064,  -50.7,         0
"B1736", 0, 1,    225.624,   -0.9,         0, 2,    225.894, -121.1,         0, 3,    227.736,  119.5,         0, 4,    3.31141,  -51.1,         0
"B2031", 0, 1,    228.616,   -0.4,         0, 2,    228.518, -120.5,         0, 3,    228.212,  119.5,         0, 4,   0.949858,  -17.5,         0
"B1646", 0, 1,    228.032,   -0.6,         0, 2,    225.833, -120.8,         0, 3,    227.734,  119.3,         0, 4,    2.62529,  -91.6,         0
"B2877", 0, 1,    228.032,   -0.6,         0, 2,    225.833, -120.8,         0, 3,    227.734,  119.3,         0, 4,    2.62529,  -91.6,         0
"B764", 0, 1,    228.616,   -0.4,         0, 2,    228.518, -120.5,         0, 3,    228.212,  119.5,         0, 4,   0.949801,  -17.4,         0
"B2254", 0, 1,    229.444,   -0.3,         0, 2,    229.259, -120.4,         0, 3,     228.63,  119.5,         0, 4,   0.689615,   -0.8,         0
"B264", 0, 1,    218.349,   -2.4,         0, 2,    226.493, -120.7,         0, 3,    222.395,  119.1,         0, 4,    4.56795,  -17.6,         0
"B1230", 0, 1,    218.349,   -2.4,         0, 2,    226.493, -120.7,         0, 3,    222.395,  119.1,         0, 4,    4.56795,  -17.6,         0
"B1530", 0, 1,    224.991,   -0.9,         0, 2,    224.117, -121.2,         0, 3,     226.53,  119.3,         0, 4,    3.28555,  -79.5,         0
"B1534", 0, 1,    224.997,   -0.9,         0, 2,    224.686, -121.2,         0, 3,    226.528,  119.3,         0, 4,     2.8611,  -72.4,         0
"B411", 0, 1,    214.498,   -3.2,         0, 2,    226.978, -120.8,         0, 3,    220.655,  119.0,         0, 4,    6.35822,   -7.5,         0
"B521", 0, 1,    214.872,   -3.2,         0, 2,    226.967, -120.8,         0, 3,    220.655,  119.0,         0, 4,    6.00129,   -8.0,         0
"B2802", 0, 1,    224.293,   -1.0,         0, 2,    223.612, -121.4,         0, 3,    225.981,  119.3,         0, 4,    3.35709,  -82.0,         0
"B1531", 0, 1,    224.296,   -1.0,         0, 2,    223.867, -121.4,         0, 3,     225.98,  119.3,         0, 4,    3.15427,  -79.3,         0
"B2008", 0, 1,    213.205,   -3.6,         0, 2,    226.614, -120.8,         0, 3,    218.702,  118.7,         0, 4,    5.66521,   -8.6,         0
"B1253", 0, 1,    213.074,   -3.7,         0, 2,    226.613, -120.8,         0, 3,     218.64,  118.7,         0, 4,    5.71853,   -8.5,         0
"B470", 0, 1,    213.403,   -3.6,         0, 2,    226.678, -120.8,         0, 3,    218.806,  118.7,         0, 4,     5.5414,   -7.4,         0
"B1108", 0, 1,    224.695,   -1.0,         0, 2,    224.402, -121.3,         0, 3,     225.99,  119.3,         0, 4,    2.61531,  -78.4,         0
"B163", 0, 1,    213.072,   -3.7,         0, 2,    226.614, -120.8,         0, 3,    218.491,  118.7,         0, 4,    5.61495,   -7.5,         0
"B3225", 0, 1,    214.768,   -3.1,         0, 2,    226.977, -120.7,         0, 3,    219.431,  118.9,         0, 4,     5.3024,    2.7,         0
"B1414", 0, 1,    214.775,   -3.1,         0, 2,    226.977, -120.7,         0, 3,    220.035,  118.9,         0, 4,    5.65809,   -2.4,         0
"B2983", 0, 1,     214.25,   -3.4,         0, 2,    226.704, -120.8,         0, 3,    220.333,  118.9,         0, 4,    6.19911,  -11.0,         0
"B2326", 0, 1,    212.455,   -3.9,         0, 2,    226.849, -120.8,         0, 3,    218.082,  118.5,         0, 4,    5.53251,   -3.1,         0
"B293", 0, 1,    212.455,   -3.9,         0, 2,    226.849, -120.8,         0, 3,    218.082,  118.5,         0, 4,    5.53251,   -3.1,         0
"B1354", 0, 1,    212.277,   -3.9,         0, 2,    226.898, -120.7,         0, 3,    217.372,  118.5,         0, 4,    5.17511,    3.0,         0
"B2071", 0, 1,    212.283,   -3.9,         0, 2,    226.899, -120.8,         0, 3,    217.924,  118.5,         0, 4,    5.49288,   -1.8,         0
"B3307", 0, 1,    229.908,   -0.2,         0, 2,     230.01, -120.2,         0, 3,    230.036,  119.8,         0, 4,    1.72059,   -2.9,         0
"B2291", 0, 1,    225.622,   -0.9,         0, 2,    225.642, -121.1,         0, 3,    227.736,  119.5,         0, 4,    3.41934,  -55.0,         0
"B811", 0, 1,    215.384,   -2.9,         0, 2,    226.928, -120.7,         0, 3,     221.09,  119.0,         0, 4,    6.03366,   -8.4,         0
"B2012", 0, 1,    215.661,   -2.9,         0, 2,     226.92, -120.7,         0, 3,     221.09,  119.0,         0, 4,    5.76957,   -8.8,         0
"B2451", 0, 1,    228.359,   -0.5,         0, 2,    227.933, -120.6,         0, 3,    228.031,  119.4,         0, 4,    1.09682,  -47.6,         0
"B696", 0, 1,    228.359,   -0.5,         0, 2,    228.181, -120.6,         0, 3,    228.031,  119.4,         0, 4,    1.03197,  -34.5,         0
"B2205", 0, 1,    213.261,   -3.4,         0, 2,    225.866, -120.8,         0, 3,    220.322,  118.9,         0, 4,    6.86502,  -16.6,         0
"B137", 0, 1,      229.3,   -0.4,         0, 2,    229.009, -120.4,         0, 3,    227.865,  119.4,         0, 4,   0.340055,   50.6,         0
"B1300", 0, 1,    214.131,   -3.3,         0, 2,    226.696, -120.8,         0, 3,    219.464,  118.8,         0, 4,    5.61426,   -7.8,         0
"B2143", 0, 1,      229.3,   -0.4,         0, 2,     229.01, -120.4,         0, 3,    227.902,  119.4,         0, 4,   0.331371,   44.5,         0
"B2673", 0, 1,    224.575,   -1.0,         0, 2,    224.633, -121.2,         0, 3,      226.2,  119.3,         0, 4,    2.59965,  -70.8,         0
"B954", 0, 1,    224.575,   -1.0,         0, 2,    224.633, -121.2,         0, 3,      226.2,  119.3,         0, 4,    2.59965,  -70.8,         0
"B1950", 0, 1,    220.356,   -2.0,         0, 2,    227.592, -120.6,         0, 3,    223.997,  119.2,         0, 4,    4.41334,  -11.0,         0
"B461", 0, 1,    219.073,   -2.2,         0, 2,    227.366, -120.7,         0, 3,     223.11,  119.2,         0, 4,    4.71483,  -10.3,         0
"B2840", 0, 1,     213.89,   -3.1,         0, 2,    226.833, -120.7,         0, 3,    220.224,  118.9,         0, 4,     6.6774,   -5.4,         0
"B1274", 0, 1,    214.085,   -3.1,         0, 2,    226.827, -120.7,         0, 3,    220.224,  118.9,         0, 4,     6.4907,   -5.5,         0
"B1070", 0, 1,     229.32,   -0.4,         0, 2,     229.08, -120.4,         0, 3,    228.688,  119.5,         0, 4,   0.759853,  -24.8,         0
"B2728", 0, 1,    227.233,   -0.6,         0, 2,    226.985, -120.8,         0, 3,    226.915,  119.4,         0, 4,   0.994784,  -54.3,         0
"B1614", 0, 1,    227.237,   -0.6,         0, 2,    226.988, -120.8,         0, 3,     227.21,  119.4,         0, 4,    1.29268,  -54.7,         0
"B52", 0, 1,    225.614,   -0.9,         0, 2,    224.945, -121.2,         0, 3,    227.739,  119.5,         0, 4,    3.78444,  -64.5,         0
"B1185", 0, 1,    214.452,   -3.2,         0, 2,     226.98, -120.8,         0, 3,    219.939,  118.9,         0, 4,    5.91702,   -2.6,         0
"B3161", 0, 1,    214.456,   -3.2,         0, 2,    226.979, -120.8,         0, 3,    220.269,  118.9,         0, 4,    6.13116,   -4.9,         0
"B206", 0, 1,    228.722,   -0.4,         0, 2,    228.502, -120.5,         0, 3,    228.202,  119.5,         0, 4,   0.869242,  -22.7,         0
"B2271", 0, 1,    224.888,   -1.1,         0, 2,    225.343, -121.3,         0, 3,    227.763,  119.5,         0, 4,     3.9339,  -50.6,         0
"B82", 0, 1,    224.702,   -1.1,         0, 2,    225.706, -121.2,         0, 3,    227.757,  119.5,         0, 4,    3.90864,  -43.6,         0
"B1431", 0, 1,     224.97,   -1.1,         0, 2,      225.7, -121.3,         0, 3,    227.754,  119.5,         0, 4,    3.73938,  -46.5,         0
"B3083", 0, 1,      212.5,   -3.7,         0, 2,    225.905, -120.8,         0, 3,    218.632,  118.7,         0, 4,     6.0322,  -14.5,         0
"B2504", 0, 1,    224.296,   -1.0,         0, 2,    223.867, -121.4,         0, 3,     225.98,  119.3,         0, 4,    3.15427,  -79.3,         0
"B1476", 0, 1,    224.997,   -0.9,         0, 2,    224.686, -121.2,         0, 3,    226.528,  119.3,         0, 4,     2.8611,  -72.4,         0
"B1594", 0, 1,    227.972,   -0.6,         0, 2,    227.951, -120.6,         0, 3,    226.969,  119.2,         0, 4,   0.198478,   21.8,         0
"B506", 0, 1,     227.98,   -0.6,         0, 2,    227.959, -120.6,         0, 3,    227.583,  119.3,         0, 4,   0.683573,  -39.8,         0
"B1094", 0, 1,    224.875,   -1.0,         0, 2,    224.876, -121.2,         0, 3,    227.727,  119.5,         0, 4,    4.10723,  -57.0,         0
"B2149", 0, 1,    224.877,   -1.0,         0, 2,    225.135, -121.2,         0, 3,    227.727,  119.5,         0, 4,    3.98899,  -53.6,         0
"B2826", 0, 1,    228.359,   -0.5,         0, 2,    227.933, -120.6,         0, 3,    228.031,  119.4,         0, 4,    1.09715,  -47.6,         0
"B903", 0, 1,    226.415,   -0.8,         0, 2,    226.432, -120.9,         0, 3,    227.826,  119.5,         0, 4,    2.53425,  -50.6,         0
"B2176", 0, 1,    214.479,   -3.1,         0, 2,    226.985, -120.7,         0, 3,    220.035,  118.9,         0, 4,    5.94416,   -2.2,         0
"B44", 0, 1,    220.356,   -2.0,         0, 2,    227.592, -120.6,         0, 3,    223.997,  119.2,         0, 4,    4.41334,  -11.0,         0
"B2317", 0, 1,    229.595,   -0.3,         0, 2,    229.522, -120.3,         0, 3,    229.327,  119.6,         0, 4,    1.23946,   -7.7,         0
"B1813", 0, 1,    229.438,   -0.3,         0, 2,    229.251, -120.4,         0, 3,        228,  119.5,         0, 4,   0.613047,   56.5,         0
"B1859", 0, 1,     215.66,   -2.9,         0, 2,    226.674, -120.7,         0, 3,    221.087,  119.0,         0, 4,    5.68847,  -11.3,         0
"B468", 0, 1,    230.927,    0.0,         0, 2,    230.934, -120.0,         0, 3,     230.93,  120.0,         0, 4,    1.69403,   -2.4,         0
"B2518", 0, 1,    230.927,    0.0,         0, 2,    230.934, -120.0,         0, 3,    230.931,  120.0,         0, 4,    1.69456,   -2.4,         0
"B1144", 0, 1,    214.128,   -3.3,         0, 2,    226.696, -120.8,         0, 3,    219.212,  118.8,         0, 4,    5.44243,   -5.8,         0
"B2401", 0, 1,    229.316,   -0.4,         0, 2,    229.077, -120.4,         0, 3,    228.391,  119.5,         0, 4,   0.528014,   -7.8,         0
"B2892", 0, 1,    227.333,   -0.6,         0, 2,    227.243, -120.8,         0, 3,    228.242,  119.5,         0, 4,    2.13283,  -43.7,         0
"B1487", 0, 1,    227.333,   -0.6,         0, 2,    227.243, -120.8,         0, 3,    228.242,  119.5,         0, 4,    2.13283,  -43.7,         0
"B1753", 0, 1,      229.2,   -0.4,         0, 2,    229.082, -120.4,         0, 3,     228.69,  119.5,         0, 4,   0.865838,  -21.0,         0
"B1489", 0, 1,     214.16,   -3.3,         0, 2,     227.03, -120.8,         0, 3,    220.358,  118.9,         0, 4,    6.32509,   -6.5,         0
"B961", 0, 1,     214.43,   -3.3,         0, 2,    227.023, -120.8,         0, 3,    220.358,  118.9,         0, 4,    6.06654,   -6.8,         0
"B1285", 0, 1,    214.426,   -3.3,         0, 2,    227.023, -120.8,         0, 3,    220.076,  118.9,         0, 4,    5.87634,   -4.8,         0
"B2805", 0, 1,    219.069,   -2.2,         0, 2,    227.365, -120.6,         0, 3,    222.781,  119.2,         0, 4,    4.48201,   -7.4,         0
"B1573", 0, 1,    218.097,   -2.4,         0, 2,    227.166, -120.7,         0, 3,     222.74,  119.1,         0, 4,    5.23591,  -11.5,         0
"B2884", 0, 1,    218.358,   -2.4,         0, 2,    227.159, -120.7,         0, 3,     222.74,  119.1,         0, 4,    4.99047,  -12.2,         0
"B707", 0, 1,    224.157,   -1.0,         0, 2,    223.533, -121.4,         0, 3,    225.902,  119.3,         0, 4,    3.35134,  -82.2,         0
"B1188", 0, 1,    227.987,   -0.6,         0, 2,    227.966, -120.6,         0, 3,    227.622,  119.3,         0, 4,    0.73367,  -38.2,         0
"B2806", 0, 1,    227.979,   -0.6,         0, 2,    227.958, -120.6,         0, 3,    226.993,  119.3,         0, 4,   0.237695,   17.4,         0
"B1543", 0, 1,    216.837,   -2.7,         0, 2,     227.08, -120.7,         0, 3,    221.685,  119.0,         0, 4,    5.35912,   -8.1,         0
"B2053", 0, 1,    227.739,   -0.6,         0, 2,     227.97, -120.6,         0, 3,    227.625,  119.3,         0, 4,   0.932314,  -27.9,         0
"B3066", 0, 1,    228.616,   -0.4,         0, 2,    228.518, -120.5,         0, 3,    228.212,  119.5,         0, 4,   0.949798,  -17.4,         0
"B1039", 0, 1,     228.03,   -0.6,         0, 2,    225.584, -120.8,         0, 3,    227.735,  119.3,         0, 4,    2.85096,  -93.8,         0
"B11", 0, 1,    227.246,   -0.6,         0, 2,    226.748, -120.8,         0, 3,    227.866,  119.4,         0, 4,    2.08371,  -61.2,         0
"B1570", 0, 1,    212.184,   -3.9,         0, 2,    226.857, -120.8,         0, 3,    218.082,  118.5,         0, 4,    5.79519,   -2.9,         0
"B2201", 0, 1,     211.11,   -3.9,         0, 2,    226.888, -120.8,         0, 3,     218.08,  118.5,         0, 4,    6.83015,   -2.6,         0
"B2732", 0, 1,    211.384,   -3.9,         0, 2,     226.88, -120.8,         0, 3,     218.08,  118.5,         0, 4,    6.56564,   -2.7,         0
"B830", 0, 1,    224.493,   -1.2,         0, 2,    228.499, -120.5,         0, 3,    226.717,  119.5,         0, 4,    3.31881,   -8.3,         0
"B1558", 0, 1,    229.309,   -0.4,         0, 2,    228.884, -120.4,         0, 3,    228.634,  119.5,         0, 4,   0.769131,  -40.3,         0
"B2657", 0, 1,    220.356,   -2.0,         0, 2,    227.455, -120.6,         0, 3,    223.995,  119.2,         0, 4,    4.37471,  -12.8,         0
"B1401", 0, 1,    224.168,   -1.2,         0, 2,    227.951, -120.5,         0, 3,    226.715,  119.5,         0, 4,    3.47655,  -16.3,         0
"B1694", 0, 1,    224.169,   -1.2,         0, 2,      228.2, -120.5,         0, 3,    226.716,  119.5,         0, 4,    3.53386,  -12.2,         0
"B2362", 0, 1,    225.201,   -1.0,         0, 2,    225.755, -121.2,         0, 3,    227.471,  119.5,         0, 4,    3.31386,  -48.1,         0
"B3006", 0, 1,    228.718,   -0.5,         0, 2,    228.607, -120.5,         0, 3,    227.774,  119.4,         0, 4,    0.58218,   14.2,         0
"B1022", 0, 1,    224.169,   -1.2,         0, 2,      228.2, -120.5,         0, 3,    226.716,  119.5,         0, 4,    3.53386,  -12.2,         0
"B1791", 0, 1,     224.71,   -1.0,         0, 2,    224.726, -121.2,         0, 3,    226.034,  119.3,         0, 4,    2.34289,  -72.1,         0
"B1196", 0, 1,    224.715,   -1.0,         0, 2,    224.728, -121.2,         0, 3,    226.288,  119.3,         0, 4,    2.59315,  -70.5,         0
"B2017", 0, 1,    212.882,   -3.7,         0, 2,    226.718, -120.8,         0, 3,    218.397,  118.6,         0, 4,    5.55512,   -6.1,         0
"B2701", 0, 1,    225.253,   -0.9,         0, 2,    225.503, -121.1,         0, 3,    227.099,  119.4,         0, 4,    2.76046,  -55.9,         0
"B1395", 0, 1,    224.063,   -1.1,         0, 2,    225.155, -121.2,         0, 3,    227.735,  119.5,         0, 4,    4.45416,  -45.0,         0
"B1545", 0, 1,    216.561,   -2.7,         0, 2,    227.087, -120.7,         0, 3,    221.685,  119.0,         0, 4,    5.62275,   -7.7,         0
"B2860", 0, 1,    224.891,   -1.1,         0, 2,    225.663, -121.3,         0, 3,    227.764,  119.5,         0, 4,    3.82395,  -46.1,         0
"B1129", 0, 1,    229.447,   -0.3,         0, 2,     228.89, -120.4,         0, 3,    228.919,  119.5,         0, 4,   0.905899,  -40.4,         0
"B990", 0, 1,     229.42,   -0.4,         0, 2,    229.293, -120.4,         0, 3,    229.565,  119.7,         0, 4,    1.79495,  -12.6,         0
"B2910", 0, 1,    227.984,   -0.6,         0, 2,    227.963, -120.6,         0, 3,    227.372,  119.3,         0, 4,   0.501065,  -29.2,         0
"B785", 0, 1,    216.496,   -2.7,         0, 2,    226.501, -120.7,         0, 3,    221.679,  119.0,         0, 4,    5.49442,  -13.5,         0
"B1741", 0, 1,    225.611,   -0.9,         0, 2,    224.674, -121.2,         0, 3,    227.739,  119.5,         0, 4,    3.95183,  -67.7,         0
"B143", 0, 1,    215.661,   -2.9,         0, 2,     226.92, -120.7,         0, 3,     221.09,  119.0,         0, 4,    5.76957,   -8.8,         0
"B3315", 0, 1,    228.616,   -0.4,         0, 2,    228.518, -120.5,         0, 3,    228.212,  119.5,         0, 4,   0.949798,  -17.4,         0
"B3000", 0, 1,    212.449,   -3.9,         0, 2,    226.849, -120.8,         0, 3,    217.582,  118.5,         0, 4,    5.23343,    1.2,         0
"B1009", 0, 1,    214.854,   -3.2,         0, 2,    226.939, -120.7,         0, 3,    220.188,  118.9,         0, 4,      5.561,   -6.1,         0
"B1773", 0, 1,    228.117,   -0.5,         0, 2,    228.624, -120.5,         0, 3,    228.336,  119.5,         0, 4,    1.50496,  -10.6,         0
"B1884", 0, 1,    225.535,   -0.9,         0, 2,    225.498, -121.1,         0, 3,    227.095,  119.4,         0, 4,    2.63552,  -61.2,         0
"B640", 0, 1,    215.128,   -3.1,         0, 2,    226.968, -120.7,         0, 3,    220.689,  118.9,         0, 4,    5.75645,   -7.6,         0
"B2269", 0, 1,    224.699,   -1.0,         0, 2,    224.404, -121.3,         0, 3,    226.195,  119.3,         0, 4,    2.81112,  -76.8,         0
"B2718", 0, 1,    225.535,   -0.9,         0, 2,    225.498, -121.1,         0, 3,    227.095,  119.4,         0, 4,    2.63552,  -61.2,         0
"B1652", 0, 1,    225.175,   -0.9,         0, 2,    224.852, -121.1,         0, 3,    226.764,  119.4,         0, 4,     2.8422,  -69.8,         0
"B2433", 0, 1,    227.332,   -0.6,         0, 2,    227.083, -120.8,         0, 3,    228.242,  119.5,         0, 4,    2.18474,  -47.8,         0
"B3079", 0, 1,     214.97,   -3.0,         0, 2,    226.802, -120.7,         0, 3,    220.225,  118.9,         0, 4,     5.6434,   -6.4,         0
"B1845", 0, 1,    214.619,   -3.2,         0, 2,    227.022, -120.7,         0, 3,    220.375,  118.9,         0, 4,    5.84068,   -6.4,         0
"B2987", 0, 1,    212.593,   -3.7,         0, 2,    226.726, -120.8,         0, 3,    218.398,  118.6,         0, 4,    5.83409,   -5.8,         0
"B812", 0, 1,    228.842,   -0.4,         0, 2,    228.337, -120.5,         0, 3,    228.297,  119.5,         0, 4,   0.880527,  -39.6,         0
"B495", 0, 1,    228.616,   -0.4,         0, 2,    228.518, -120.5,         0, 3,    228.212,  119.5,         0, 4,     0.9499,  -17.5,         0
"B2514", 0, 1,    224.995,   -0.9,         0, 2,    224.474, -121.2,         0, 3,    226.529,  119.3,         0, 4,    3.01386,  -75.2,         0
"B1523", 0, 1,    228.045,   -0.6,         0, 2,    227.442, -120.7,         0, 3,    227.725,  119.3,         0, 4,     1.3613,  -61.7,         0
"B1994", 0, 1,    218.344,   -2.4,         0, 2,    226.493, -120.7,         0, 3,    222.138,  119.1,         0, 4,    4.36306,  -15.6,         0
"B543", 0, 1,    214.857,   -3.2,         0, 2,    226.939, -120.7,         0, 3,    220.449,  118.9,         0, 4,     5.7404,   -8.0,         0
"B2239", 0, 1,    228.616,   -0.4,         0, 2,    228.518, -120.5,         0, 3,    228.212,  119.5,         0, 4,   0.949817,  -17.5,         0
"B1902", 0, 1,    225.177,   -0.9,         0, 2,     225.14, -121.1,         0, 3,    226.764,  119.4,         0, 4,    2.65671,  -65.2,         0
"B355", 0, 1,     223.84,   -1.0,         0, 2,    223.785, -121.4,         0, 3,    225.862,  119.3,         0, 4,    3.13246,  -74.9,         0
"B2856", 0, 1,     214.43,   -3.3,         0, 2,    227.023, -120.8,         0, 3,    220.358,  118.9,         0, 4,    6.06654,   -6.8,         0
"B1676", 0, 1,    228.616,   -0.4,         0, 2,    228.518, -120.5,         0, 3,    228.212,  119.5,         0, 4,   0.949806,  -17.5,         0
"B1662", 0, 1,    228.616,   -0.4,         0, 2,    228.518, -120.5,         0, 3,    228.212,  119.5,         0, 4,   0.949804,  -17.5,         0
"B438", 0, 1,    214.568,   -3.3,         0, 2,    226.992, -120.8,         0, 3,    220.202,  118.9,         0, 4,    5.88143,   -5.7,         0
"B315", 0, 1,    214.572,   -3.3,         0, 2,    226.992, -120.8,         0, 3,    220.484,  118.9,         0, 4,    6.07442,   -7.6,         0
"B1031", 0, 1,    224.644,   -1.1,         0, 2,    225.393, -121.3,         0, 3,    227.757,  119.5,         0, 4,    4.03522,  -47.4,         0
"B1360", 0, 1,    228.359,   -0.5,         0, 2,    228.181, -120.6,         0, 3,    228.031,  119.4,         0, 4,    1.03197,  -34.5,         0
"B2335", 0, 1,    212.452,   -3.9,         0, 2,    226.849, -120.8,         0, 3,    217.808,  118.5,         0, 4,    5.36468,   -0.8,         0
"B360", 0, 1,    225.607,   -0.9,         0, 2,    224.281, -121.2,         0, 3,    227.741,  119.5,         0, 4,    4.21261,  -71.9,         0
"B316", 0, 1,    230.909,    0.0,         0, 2,    230.869, -120.0,         0, 3,    227.223,  119.9,         0, 4,    2.94584,   97.1,         0
"B1947", 0, 1,    214.272,   -3.3,         0, 2,        227, -120.8,         0, 3,    220.484,  118.9,         0, 4,     6.3609,   -7.3,         0
"B215", 0, 1,    228.616,   -0.4,         0, 2,    228.518, -120.5,         0, 3,    228.212,  119.5,         0, 4,   0.949806,  -17.5,         0
"B2421", 0, 1,      213.4,   -3.6,         0, 2,    226.678, -120.8,         0, 3,    218.544,  118.7,         0, 4,    5.36403,   -5.4,         0
"B3058", 0, 1,    213.204,   -3.6,         0, 2,     226.28, -120.8,         0, 3,    218.699,  118.7,         0, 4,    5.55661,  -12.0,         0
"B2486", 0, 1,    214.143,   -3.3,         0, 2,    226.974, -120.8,         0, 3,    220.383,  118.9,         0, 4,    6.40553,   -8.0,         0
"B2709", 0, 1,    224.713,   -1.0,         0, 2,    224.466, -121.2,         0, 3,    226.289,  119.3,         0, 4,    2.77913,  -74.5,         0
"B3076", 0, 1,    224.642,   -1.1,         0, 2,    225.669, -121.3,         0, 3,    227.766,  119.5,         0, 4,    3.98207,  -43.5,         0
"B522", 0, 1,    224.384,   -1.1,         0, 2,    225.399, -121.3,         0, 3,     227.76,  119.5,         0, 4,    4.19527,  -44.7,         0
"B1682", 0, 1,    224.607,   -0.9,         0, 2,    224.947, -121.2,         0, 3,    226.487,  119.3,         0, 4,    2.66267,  -61.8,         0
"B1333", 0, 1,    224.089,   -1.0,         0, 2,    223.778, -121.4,         0, 3,    225.627,  119.3,         0, 4,    2.88188,  -81.3,         0
"B2756", 0, 1,    229.595,   -0.3,         0, 2,    229.522, -120.3,         0, 3,    229.327,  119.6,         0, 4,    1.23946,   -7.7,         0
"B2724", 0, 1,    213.262,   -3.4,         0, 2,    226.091, -120.8,         0, 3,    220.324,  118.9,         0, 4,    6.92054,  -14.7,         0
"B102", 0, 1,     214.87,   -3.2,         0, 2,    226.427, -120.8,         0, 3,    220.649,  119.0,         0, 4,    5.82717,  -13.2,         0
"B944", 0, 1,    228.719,   -0.4,         0, 2,    228.499, -120.5,         0, 3,    227.966,  119.5,         0, 4,   0.683211,  -11.8,         0
"B245", 0, 1,    228.046,   -0.6,         0, 2,    227.686, -120.7,         0, 3,    227.725,  119.3,         0, 4,    1.23588,  -52.3,         0
"B846", 0, 1,    227.221,   -0.6,         0, 2,    226.965, -120.8,         0, 3,    225.664,  119.4,         0, 4,   0.252628,  114.6,         0
"B1788", 0, 1,    227.222,   -0.6,         0, 2,    226.967, -120.8,         0, 3,    225.803,  119.4,         0, 4,     0.1164,  103.5,         0
"B1620", 0, 1,    224.094,   -1.0,         0, 2,     223.78, -121.4,         0, 3,    225.858,  119.3,         0, 4,    3.09847,  -79.5,         0
"B613", 0, 1,    227.237,   -0.6,         0, 2,    226.988, -120.8,         0, 3,     227.21,  119.4,         0, 4,    1.29268,  -54.7,         0
"B2785", 0, 1,    229.908,   -0.2,         0, 2,     230.01, -120.2,         0, 3,    230.036,  119.8,         0, 4,    1.72059,   -2.9,         0
"B1671", 0, 1,    229.908,   -0.2,         0, 2,     230.01, -120.2,         0, 3,    230.036,  119.8,         0, 4,    1.72059,   -2.9,         0
"B3393", 0, 1,    214.872,   -3.2,         0, 2,    226.967, -120.8,         0, 3,    220.655,  119.0,         0, 4,    6.00129,   -8.0,         0
"B3186", 0, 1,    227.247,   -0.6,         0, 2,    226.996, -120.8,         0, 3,    227.866,  119.4,         0, 4,    1.95404,  -55.2,         0
"B2682", 0, 1,     229.02,   -0.4,         0, 2,     228.88, -120.4,         0, 3,    228.565,  119.5,         0, 4,   0.937179,  -13.5,         0
"B3260", 0, 1,    216.412,   -2.7,         0, 2,    227.091, -120.7,         0, 3,    221.685,  119.0,         0, 4,    5.76562,   -7.4,         0
"B1310", 0, 1,    214.869,   -3.1,         0, 2,    226.975, -120.7,         0, 3,     220.69,  118.9,         0, 4,    6.00485,   -7.2,         0
"B1227", 0, 1,    227.027,   -0.6,         0, 2,    227.248, -120.8,         0, 3,    228.246,  119.5,         0, 4,    2.34513,  -38.2,         0
"B2893", 0, 1,    224.228,   -1.2,         0, 2,    228.505, -120.5,         0, 3,    226.718,  119.5,         0, 4,    3.57377,   -7.5,         0
"B2904", 0, 1,    229.238,   -0.4,         0, 2,    229.647, -120.3,         0, 3,    229.643,  119.7,         0, 4,     1.9244,    3.2,         0
"B1808", 0, 1,    211.303,   -4.0,         0, 2,    226.924, -120.7,         0, 3,    217.002,  118.5,         0, 4,    5.91928,    5.2,         0
"B70", 0, 1,    225.611,   -0.9,         0, 2,    224.669, -121.2,         0, 3,    227.739,  119.5,         0, 4,    3.95528,  -67.8,         0
"B157", 0, 1,    214.613,   -3.2,         0, 2,    227.023, -120.7,         0, 3,      219.9,  118.9,         0, 4,    5.52941,   -2.8,         0
"B2163", 0, 1,    212.871,   -3.7,         0, 2,    226.281, -120.8,         0, 3,    217.674,  118.6,         0, 4,    4.90692,   -4.7,         0
"B2544", 0, 1,    218.347,   -2.4,         0, 2,    226.216, -120.7,         0, 3,    222.393,  119.1,         0, 4,    4.52473,  -21.2,         0
"B1838", 0, 1,    214.572,   -3.3,         0, 2,    226.992, -120.8,         0, 3,    220.484,  118.9,         0, 4,    6.07442,   -7.6,         0
"B1785", 0, 1,    229.889,   -0.2,         0, 2,    229.995, -120.2,         0, 3,    230.026,  119.8,         0, 4,     1.7213,   -3.3,         0
"B1542", 0, 1,    224.464,   -1.0,         0, 2,    224.651, -121.2,         0, 3,    226.213,  119.3,         0, 4,    2.58464,  -68.4,         0
"B1766", 0, 1,    213.976,   -3.2,         0, 2,    226.993, -120.8,         0, 3,    220.269,  118.9,         0, 4,    6.59282,   -4.6,         0
"B147", 0, 1,    219.072,   -2.2,         0, 2,    226.957, -120.7,         0, 3,    223.106,  119.2,         0, 4,    4.60471,  -15.4,         0
"B2144", 0, 1,    214.853,   -3.2,         0, 2,    226.062, -120.8,         0, 3,     220.44,  118.9,         0, 4,    5.48812,  -17.0,         0
"B2284", 0, 1,    229.941,   -0.2,         0, 2,    230.025, -120.2,         0, 3,    230.058,  119.8,         0, 4,    1.71884,   -2.6,         0
"B731", 0, 1,    224.641,   -1.1,         0, 2,    225.136, -121.3,         0, 3,    227.756,  119.5,         0, 4,    4.12678,  -50.8,         0
"B1032", 0, 1,    229.017,   -0.4,         0, 2,    228.877, -120.4,         0, 3,    228.297,  119.5,         0, 4,     0.7599,    0.2,         0
"B303", 0, 1,    216.212,   -2.7,         0, 2,     226.79, -120.7,         0, 3,    221.682,  119.0,         0, 4,    5.84635,  -10.1,         0
"B3234", 0, 1,    214.771,   -3.1,         0, 2,    226.977, -120.7,         0, 3,    219.758,  118.9,         0, 4,    5.48919,   -0.1,         0
"B187", 0, 1,    227.231,   -0.6,         0, 2,    226.984, -120.8,         0, 3,    226.824,  119.4,         0, 4,    0.90381,  -54.1,         0
"B1", 0, 1,     228.03,   -0.6,         0, 2,    225.585, -120.8,         0, 3,    227.735,  119.3,         0, 4,    2.85013,  -93.7,         0
"B2361", 0, 1,    225.614,   -0.9,         0, 2,    224.945, -121.2,         0, 3,    227.739,  119.5,         0, 4,    3.78444,  -64.5,         0
"B201", 0, 1,    212.925,   -3.7,         0, 2,    226.618, -120.8,         0, 3,     218.64,  118.7,         0, 4,    5.86137,   -8.3,         0
"B46", 0, 1,    214.966,   -3.0,         0, 2,    226.802, -120.7,         0, 3,    219.963,  118.9,         0, 4,    5.46858,   -4.4,         0
"B2699", 0, 1,    224.571,   -1.0,         0, 2,    224.631, -121.2,         0, 3,    225.961,  119.3,         0, 4,    2.36521,  -72.3,         0
"B2111", 0, 1,    225.177,   -0.9,         0, 2,     225.14, -121.1,         0, 3,    226.764,  119.4,         0, 4,    2.65671,  -65.2,         0
"B795", 0, 1,    213.788,   -3.1,         0, 2,    226.836, -120.7,         0, 3,    220.224,  118.9,         0, 4,    6.77506,   -5.3,         0
"B1351", 0, 1,    228.616,   -0.4,         0, 2,    228.518, -120.5,         0, 3,    228.212,  119.5,         0, 4,   0.949798,  -17.4,         0
"B1769", 0, 1,    229.434,   -0.3,         0, 2,    229.246, -120.4,         0, 3,    227.697,  119.5,         0, 4,   0.779726,   77.4,         0
"B2675", 0, 1,    228.722,   -0.4,         0, 2,    228.263, -120.5,         0, 3,    228.201,  119.5,         0, 4,   0.889325,  -38.4,         0
"B1605", 0, 1,    224.875,   -1.0,         0, 2,    224.864, -121.2,         0, 3,    227.727,  119.5,         0, 4,    4.11285,  -57.1,         0
"B2450", 0, 1,    210.718,   -4.0,         0, 2,     226.94, -120.7,         0, 3,    217.001,  118.5,         0, 4,    6.48446,    4.7,         0
"B771", 0, 1,    213.769,   -3.3,         0, 2,    226.383, -120.8,         0, 3,    219.461,  118.8,         0, 4,    5.84462,  -10.4,         0
"B2780", 0, 1,    219.073,   -2.2,         0, 2,    227.366, -120.7,         0, 3,     223.11,  119.2,         0, 4,    4.71483,  -10.3,         0
"B2065", 0, 1,    218.357,   -2.4,         0, 2,    226.918, -120.7,         0, 3,    222.737,  119.1,         0, 4,    4.92776,  -15.0,         0
"B2278", 0, 1,    224.294,   -1.0,         0, 2,    223.649, -121.4,         0, 3,    225.981,  119.3,         0, 4,    3.32693,  -81.6,         0
"B1636", 0, 1,    228.616,   -0.4,         0, 2,    228.518, -120.5,         0, 3,    228.212,  119.5,         0, 4,   0.949862,  -17.5,         0
"B1181", 0, 1,    228.842,   -0.4,         0, 2,      228.6, -120.4,         0, 3,    228.297,  119.5,         0, 4,   0.857049,  -22.1,         0
"B489", 0, 1,    213.767,   -3.3,         0, 2,    225.911, -120.8,         0, 3,    219.456,  118.8,         0, 4,    5.70984,  -15.0,         0
"B2596", 0, 1,    213.205,   -3.6,         0, 2,    226.614, -120.8,         0, 3,    218.702,  118.7,         0, 4,    5.66521,   -8.6,         0
"B575", 0, 1,    214.019,   -3.4,         0, 2,    226.978, -120.8,         0, 3,    220.382,  118.9,         0, 4,    6.52282,   -7.8,         0
"B2998", 0, 1,    213.474,   -3.3,         0, 2,    226.391, -120.8,         0, 3,    219.461,  118.8,         0, 4,    6.12416,   -9.9,         0
"B3274", 0, 1,    224.181,   -1.0,         0, 2,    224.143, -121.3,         0, 3,    226.052,  119.3,         0, 4,    2.97059,  -73.1,         0
"B2309", 0, 1,    218.343,   -2.4,         0, 2,     225.57, -120.7,         0, 3,    222.389,  119.1,         0, 4,    4.49134,  -29.6,         0
"B2470", 0, 1,    214.131,   -3.3,         0, 2,    226.436, -120.8,         0, 3,    219.461,  118.8,         0, 4,     5.5245,  -10.4,         0
"B2336", 0, 1,    214.344,   -3.2,         0, 2,     227.03, -120.7,         0, 3,    220.375,  118.9,         0, 4,    6.10473,   -6.1,         0
"B2101", 0, 1,      213.4,   -3.6,         0, 2,    226.678, -120.8,         0, 3,     218.55,  118.7,         0, 4,    5.36799,   -5.4,         0
"B1223", 0, 1,    229.881,   -0.2,         0, 2,    230.008, -120.2,         0, 3,    230.019,  119.8,         0, 4,    1.72811,   -3.1,         0
"B117", 0, 1,    224.882,   -0.9,         0, 2,    224.942, -121.2,         0, 3,    226.483,  119.3,         0, 4,    2.56615,  -67.3,         0
"B2270", 0, 1,    224.573,   -1.0,         0, 2,    224.372, -121.2,         0, 3,      226.2,  119.3,         0, 4,    2.78519,  -74.7,         0
"B1817", 0, 1,    228.091,   -0.6,         0, 2,    227.987, -120.6,         0, 3,    227.809,  119.3,         0, 4,   0.972082,  -37.4,         0
"B1432", 0, 1,    226.415,   -0.8,         0, 2,    226.432, -120.9,         0, 3,    227.826,  119.5,         0, 4,    2.53425,  -50.6,         0
"B124", 0, 1,    211.104,   -3.9,         0, 2,    226.888, -120.8,         0, 3,     218.08,  118.5,         0, 4,    6.83579,   -2.6,         0
"B1839", 0, 1,    229.309,   -0.4,         0, 2,      228.9, -120.4,         0, 3,    228.634,  119.5,         0, 4,   0.765158,  -39.2,         0
"B818", 0, 1,    229.656,   -0.3,         0, 2,    229.645, -120.3,         0, 3,    229.796,  119.7,         0, 4,     1.7523,   -8.0,         0
"B3107", 0, 1,    229.653,   -0.3,         0, 2,    229.643, -120.3,         0, 3,    229.795,  119.7,         0, 4,    1.75251,   -8.1,         0
"B159", 0, 1,    220.356,   -2.0,         0, 2,    227.592, -120.6,         0, 3,    223.997,  119.2,         0, 4,    4.41334,  -11.0,         0
"B3405", 0, 1,    212.881,   -3.7,         0, 2,    226.475, -120.8,         0, 3,    218.394,  118.6,         0, 4,    5.46413,   -8.5,         0
"B4", 0, 1,     227.84,   -0.6,         0, 2,    227.991, -120.6,         0, 3,    227.812,  119.3,         0, 4,    1.17075,  -29.3,         0
"B2706", 0, 1,    224.432,   -1.0,         0, 2,    224.136, -121.3,         0, 3,    225.795,  119.3,         0, 4,    2.68886,  -80.0,         0
"B3103", 0, 1,    211.999,   -3.9,         0, 2,    226.906, -120.7,         0, 3,    217.924,  118.5,         0, 4,    5.76879,   -1.8,         0
"B1583", 0, 1,    224.492,   -1.2,         0, 2,    228.267, -120.5,         0, 3,    226.715,  119.5,         0, 4,    3.25051,  -12.3,         0
"B703", 0, 1,     229.32,   -0.4,         0, 2,     229.08, -120.4,         0, 3,    228.688,  119.5,         0, 4,   0.759853,  -24.8,         0
"B3210", 0, 1,    228.291,   -0.5,         0, 2,    228.523, -120.5,         0, 3,    228.215,  119.5,         0, 4,    1.25598,  -12.1,         0
"B183", 0, 1,    224.694,   -1.0,         0, 2,    224.401, -121.3,         0, 3,    225.947,  119.3,         0, 4,    2.57447,  -78.8,         0
"B3095", 0, 1,    228.616,   -0.4,         0, 2,    228.518, -120.5,         0, 3,    228.212,  119.5,         0, 4,   0.949832,  -17.5,         0
"B2632", 0, 1,    224.953,   -1.0,         0, 2,    225.762, -121.2,         0, 3,    227.726,  119.5,         0, 4,    3.72193,  -45.6,         0
"B3173", 0, 1,    213.984,   -3.1,         0, 2,     226.83, -120.7,         0, 3,    220.224,  118.9,         0, 4,    6.58723,   -5.4,         0
"B2411", 0, 1,    214.131,   -3.3,         0, 2,    226.696, -120.8,         0, 3,    219.464,  118.8,         0, 4,    5.61426,   -7.8,         0
"B739", 0, 1,    228.616,   -0.4,         0, 2,    228.518, -120.5,         0, 3,    228.212,  119.5,         0, 4,   0.949817,  -17.5,         0
"B1157", 0, 1,    228.722,   -0.4,         0, 2,    228.502, -120.5,         0, 3,    228.202,  119.5,         0, 4,   0.869242,  -22.7,         0
"B25", 0, 1,    229.692,   -0.3,         0, 2,    229.649, -120.3,         0, 3,    229.501,  119.6,         0, 4,    1.33545,   -7.1,         0
"B989", 0, 1,    213.637,   -3.3,         0, 2,    227.051, -120.7,         0, 3,    220.374,  118.9,         0, 4,     6.7813,   -5.5,         0
"B3306", 0, 1,    224.938,   -0.9,         0, 2,     225.91, -121.1,         0, 3,    227.744,  119.5,         0, 4,    3.73045,  -42.6,         0
"B1355", 0, 1,    223.749,   -1.2,         0, 2,    228.209, -120.5,         0, 3,    226.719,  119.5,         0, 4,    3.93132,  -10.6,         0
"B1601", 0, 1,    227.217,   -0.6,         0, 2,     226.96, -120.8,         0, 3,    225.329,  119.4,         0, 4,   0.585164,  119.7,         0
"B567", 0, 1,    229.908,   -0.2,         0, 2,    229.896, -120.2,         0, 3,    230.035,  119.8,         0, 4,    1.67888,   -6.6,         0
"B3264", 0, 1,    229.799,   -0.3,         0, 2,    229.828, -120.3,         0, 3,    229.766,  119.7,         0, 4,    1.52588,   -4.8,         0
"B626", 0, 1,    229.798,   -0.3,         0, 2,    229.827, -120.3,         0, 3,    229.765,  119.7,         0, 4,     1.5248,   -4.8,         0
